
---------- Begin Simulation Statistics ----------
simSeconds                                   0.000033                       # Number of seconds simulated (Second)
simTicks                                     33361888                       # Number of ticks simulated (Tick)
finalTick                                    33361888                       # Number of ticks from beginning of simulation (restored from checkpoints and never reset) (Tick)
simFreq                                  1000000000000                       # The number of ticks per simulated second ((Tick/Second))
hostSeconds                                      0.03                       # Real time elapsed on the host (Second)
hostTickRate                               1042496581                       # The number of ticks simulated per host second (ticks/s) ((Tick/Second))
hostMemory                                     696948                       # Number of bytes of host memory used (Byte)
simInsts                                        18395                       # Number of instructions simulated (Count)
simOps                                          19310                       # Number of ops (including micro ops) simulated (Count)
hostInstRate                                   572915                       # Simulator instruction rate (inst/s) ((Count/Second))
hostOpRate                                     601251                       # Simulator op (including micro ops) rate (op/s) ((Count/Second))
system.clk_domain.clock                          1000                       # Clock period in ticks (Tick)
system.cpu0.numCycles                          140176                       # Number of cpu cycles simulated (Cycle)
system.cpu0.numWorkItemsStarted                     0                       # Number of work items this cpu started (Count)
system.cpu0.numWorkItemsCompleted                   0                       # Number of work items this cpu completed (Count)
system.cpu0.dcache.demandHits::cpu0.data         5335                       # number of demand (read+write) hits (Count)
system.cpu0.dcache.demandHits::total             5335                       # number of demand (read+write) hits (Count)
system.cpu0.dcache.overallHits::cpu0.data         5355                       # number of overall hits (Count)
system.cpu0.dcache.overallHits::total            5355                       # number of overall hits (Count)
system.cpu0.dcache.demandMisses::cpu0.data          153                       # number of demand (read+write) misses (Count)
system.cpu0.dcache.demandMisses::total            153                       # number of demand (read+write) misses (Count)
system.cpu0.dcache.overallMisses::cpu0.data          163                       # number of overall misses (Count)
system.cpu0.dcache.overallMisses::total           163                       # number of overall misses (Count)
system.cpu0.dcache.demandMissLatency::cpu0.data      8904962                       # number of demand (read+write) miss ticks (Tick)
system.cpu0.dcache.demandMissLatency::total      8904962                       # number of demand (read+write) miss ticks (Tick)
system.cpu0.dcache.overallMissLatency::cpu0.data      8904962                       # number of overall miss ticks (Tick)
system.cpu0.dcache.overallMissLatency::total      8904962                       # number of overall miss ticks (Tick)
system.cpu0.dcache.demandAccesses::cpu0.data         5488                       # number of demand (read+write) accesses (Count)
system.cpu0.dcache.demandAccesses::total         5488                       # number of demand (read+write) accesses (Count)
system.cpu0.dcache.overallAccesses::cpu0.data         5518                       # number of overall (read+write) accesses (Count)
system.cpu0.dcache.overallAccesses::total         5518                       # number of overall (read+write) accesses (Count)
system.cpu0.dcache.demandMissRate::cpu0.data     0.027879                       # miss rate for demand accesses (Ratio)
system.cpu0.dcache.demandMissRate::total     0.027879                       # miss rate for demand accesses (Ratio)
system.cpu0.dcache.overallMissRate::cpu0.data     0.029540                       # miss rate for overall accesses (Ratio)
system.cpu0.dcache.overallMissRate::total     0.029540                       # miss rate for overall accesses (Ratio)
system.cpu0.dcache.demandAvgMissLatency::cpu0.data 58202.366013                       # average overall miss latency in ticks ((Tick/Count))
system.cpu0.dcache.demandAvgMissLatency::total 58202.366013                       # average overall miss latency in ticks ((Tick/Count))
system.cpu0.dcache.overallAvgMissLatency::cpu0.data 54631.668712                       # average overall miss latency ((Tick/Count))
system.cpu0.dcache.overallAvgMissLatency::total 54631.668712                       # average overall miss latency ((Tick/Count))
system.cpu0.dcache.blockedCycles::no_mshrs            0                       # number of cycles access was blocked (Cycle)
system.cpu0.dcache.blockedCycles::no_targets            0                       # number of cycles access was blocked (Cycle)
system.cpu0.dcache.blockedCauses::no_mshrs            0                       # number of times access was blocked (Count)
system.cpu0.dcache.blockedCauses::no_targets            0                       # number of times access was blocked (Count)
system.cpu0.dcache.avgBlocked::no_mshrs           nan                       # average number of cycles each access was blocked ((Cycle/Count))
system.cpu0.dcache.avgBlocked::no_targets          nan                       # average number of cycles each access was blocked ((Cycle/Count))
system.cpu0.dcache.demandMshrHits::cpu0.data            1                       # number of demand (read+write) MSHR hits (Count)
system.cpu0.dcache.demandMshrHits::total            1                       # number of demand (read+write) MSHR hits (Count)
system.cpu0.dcache.overallMshrHits::cpu0.data            1                       # number of overall MSHR hits (Count)
system.cpu0.dcache.overallMshrHits::total            1                       # number of overall MSHR hits (Count)
system.cpu0.dcache.demandMshrMisses::cpu0.data          152                       # number of demand (read+write) MSHR misses (Count)
system.cpu0.dcache.demandMshrMisses::total          152                       # number of demand (read+write) MSHR misses (Count)
system.cpu0.dcache.overallMshrMisses::cpu0.data          159                       # number of overall MSHR misses (Count)
system.cpu0.dcache.overallMshrMisses::total          159                       # number of overall MSHR misses (Count)
system.cpu0.dcache.demandMshrMissLatency::cpu0.data      8752410                       # number of demand (read+write) MSHR miss ticks (Tick)
system.cpu0.dcache.demandMshrMissLatency::total      8752410                       # number of demand (read+write) MSHR miss ticks (Tick)
system.cpu0.dcache.overallMshrMissLatency::cpu0.data      9152336                       # number of overall MSHR miss ticks (Tick)
system.cpu0.dcache.overallMshrMissLatency::total      9152336                       # number of overall MSHR miss ticks (Tick)
system.cpu0.dcache.demandMshrMissRate::cpu0.data     0.027697                       # mshr miss ratio for demand accesses (Ratio)
system.cpu0.dcache.demandMshrMissRate::total     0.027697                       # mshr miss ratio for demand accesses (Ratio)
system.cpu0.dcache.overallMshrMissRate::cpu0.data     0.028815                       # mshr miss ratio for overall accesses (Ratio)
system.cpu0.dcache.overallMshrMissRate::total     0.028815                       # mshr miss ratio for overall accesses (Ratio)
system.cpu0.dcache.demandAvgMshrMissLatency::cpu0.data 57581.644737                       # average overall mshr miss latency ((Tick/Count))
system.cpu0.dcache.demandAvgMshrMissLatency::total 57581.644737                       # average overall mshr miss latency ((Tick/Count))
system.cpu0.dcache.overallAvgMshrMissLatency::cpu0.data 57561.861635                       # average overall mshr miss latency ((Tick/Count))
system.cpu0.dcache.overallAvgMshrMissLatency::total 57561.861635                       # average overall mshr miss latency ((Tick/Count))
system.cpu0.dcache.replacements                     0                       # number of replacements (Count)
system.cpu0.dcache.LoadLockedReq.hits::cpu0.data           14                       # number of LoadLockedReq hits (Count)
system.cpu0.dcache.LoadLockedReq.hits::total           14                       # number of LoadLockedReq hits (Count)
system.cpu0.dcache.LoadLockedReq.accesses::cpu0.data           14                       # number of LoadLockedReq accesses(hits+misses) (Count)
system.cpu0.dcache.LoadLockedReq.accesses::total           14                       # number of LoadLockedReq accesses(hits+misses) (Count)
system.cpu0.dcache.ReadReq.hits::cpu0.data         3346                       # number of ReadReq hits (Count)
system.cpu0.dcache.ReadReq.hits::total           3346                       # number of ReadReq hits (Count)
system.cpu0.dcache.ReadReq.misses::cpu0.data           77                       # number of ReadReq misses (Count)
system.cpu0.dcache.ReadReq.misses::total           77                       # number of ReadReq misses (Count)
system.cpu0.dcache.ReadReq.missLatency::cpu0.data      4635004                       # number of ReadReq miss ticks (Tick)
system.cpu0.dcache.ReadReq.missLatency::total      4635004                       # number of ReadReq miss ticks (Tick)
system.cpu0.dcache.ReadReq.accesses::cpu0.data         3423                       # number of ReadReq accesses(hits+misses) (Count)
system.cpu0.dcache.ReadReq.accesses::total         3423                       # number of ReadReq accesses(hits+misses) (Count)
system.cpu0.dcache.ReadReq.missRate::cpu0.data     0.022495                       # miss rate for ReadReq accesses (Ratio)
system.cpu0.dcache.ReadReq.missRate::total     0.022495                       # miss rate for ReadReq accesses (Ratio)
system.cpu0.dcache.ReadReq.avgMissLatency::cpu0.data 60194.857143                       # average ReadReq miss latency ((Tick/Count))
system.cpu0.dcache.ReadReq.avgMissLatency::total 60194.857143                       # average ReadReq miss latency ((Tick/Count))
system.cpu0.dcache.ReadReq.mshrHits::cpu0.data            1                       # number of ReadReq MSHR hits (Count)
system.cpu0.dcache.ReadReq.mshrHits::total            1                       # number of ReadReq MSHR hits (Count)
system.cpu0.dcache.ReadReq.mshrMisses::cpu0.data           76                       # number of ReadReq MSHR misses (Count)
system.cpu0.dcache.ReadReq.mshrMisses::total           76                       # number of ReadReq MSHR misses (Count)
system.cpu0.dcache.ReadReq.mshrMissLatency::cpu0.data      4527834                       # number of ReadReq MSHR miss ticks (Tick)
system.cpu0.dcache.ReadReq.mshrMissLatency::total      4527834                       # number of ReadReq MSHR miss ticks (Tick)
system.cpu0.dcache.ReadReq.mshrMissRate::cpu0.data     0.022203                       # mshr miss rate for ReadReq accesses (Ratio)
system.cpu0.dcache.ReadReq.mshrMissRate::total     0.022203                       # mshr miss rate for ReadReq accesses (Ratio)
system.cpu0.dcache.ReadReq.avgMshrMissLatency::cpu0.data 59576.763158                       # average ReadReq mshr miss latency ((Tick/Count))
system.cpu0.dcache.ReadReq.avgMshrMissLatency::total 59576.763158                       # average ReadReq mshr miss latency ((Tick/Count))
system.cpu0.dcache.SoftPFReq.hits::cpu0.data           20                       # number of SoftPFReq hits (Count)
system.cpu0.dcache.SoftPFReq.hits::total           20                       # number of SoftPFReq hits (Count)
system.cpu0.dcache.SoftPFReq.misses::cpu0.data           10                       # number of SoftPFReq misses (Count)
system.cpu0.dcache.SoftPFReq.misses::total           10                       # number of SoftPFReq misses (Count)
system.cpu0.dcache.SoftPFReq.accesses::cpu0.data           30                       # number of SoftPFReq accesses(hits+misses) (Count)
system.cpu0.dcache.SoftPFReq.accesses::total           30                       # number of SoftPFReq accesses(hits+misses) (Count)
system.cpu0.dcache.SoftPFReq.missRate::cpu0.data     0.333333                       # miss rate for SoftPFReq accesses (Ratio)
system.cpu0.dcache.SoftPFReq.missRate::total     0.333333                       # miss rate for SoftPFReq accesses (Ratio)
system.cpu0.dcache.SoftPFReq.mshrMisses::cpu0.data            7                       # number of SoftPFReq MSHR misses (Count)
system.cpu0.dcache.SoftPFReq.mshrMisses::total            7                       # number of SoftPFReq MSHR misses (Count)
system.cpu0.dcache.SoftPFReq.mshrMissLatency::cpu0.data       399926                       # number of SoftPFReq MSHR miss ticks (Tick)
system.cpu0.dcache.SoftPFReq.mshrMissLatency::total       399926                       # number of SoftPFReq MSHR miss ticks (Tick)
system.cpu0.dcache.SoftPFReq.mshrMissRate::cpu0.data     0.233333                       # mshr miss rate for SoftPFReq accesses (Ratio)
system.cpu0.dcache.SoftPFReq.mshrMissRate::total     0.233333                       # mshr miss rate for SoftPFReq accesses (Ratio)
system.cpu0.dcache.SoftPFReq.avgMshrMissLatency::cpu0.data 57132.285714                       # average SoftPFReq mshr miss latency ((Tick/Count))
system.cpu0.dcache.SoftPFReq.avgMshrMissLatency::total 57132.285714                       # average SoftPFReq mshr miss latency ((Tick/Count))
system.cpu0.dcache.StoreCondReq.hits::cpu0.data           14                       # number of StoreCondReq hits (Count)
system.cpu0.dcache.StoreCondReq.hits::total           14                       # number of StoreCondReq hits (Count)
system.cpu0.dcache.StoreCondReq.accesses::cpu0.data           14                       # number of StoreCondReq accesses(hits+misses) (Count)
system.cpu0.dcache.StoreCondReq.accesses::total           14                       # number of StoreCondReq accesses(hits+misses) (Count)
system.cpu0.dcache.WriteReq.hits::cpu0.data         1989                       # number of WriteReq hits (Count)
system.cpu0.dcache.WriteReq.hits::total          1989                       # number of WriteReq hits (Count)
system.cpu0.dcache.WriteReq.misses::cpu0.data           76                       # number of WriteReq misses (Count)
system.cpu0.dcache.WriteReq.misses::total           76                       # number of WriteReq misses (Count)
system.cpu0.dcache.WriteReq.missLatency::cpu0.data      4269958                       # number of WriteReq miss ticks (Tick)
system.cpu0.dcache.WriteReq.missLatency::total      4269958                       # number of WriteReq miss ticks (Tick)
system.cpu0.dcache.WriteReq.accesses::cpu0.data         2065                       # number of WriteReq accesses(hits+misses) (Count)
system.cpu0.dcache.WriteReq.accesses::total         2065                       # number of WriteReq accesses(hits+misses) (Count)
system.cpu0.dcache.WriteReq.missRate::cpu0.data     0.036804                       # miss rate for WriteReq accesses (Ratio)
system.cpu0.dcache.WriteReq.missRate::total     0.036804                       # miss rate for WriteReq accesses (Ratio)
system.cpu0.dcache.WriteReq.avgMissLatency::cpu0.data 56183.657895                       # average WriteReq miss latency ((Tick/Count))
system.cpu0.dcache.WriteReq.avgMissLatency::total 56183.657895                       # average WriteReq miss latency ((Tick/Count))
system.cpu0.dcache.WriteReq.mshrMisses::cpu0.data           76                       # number of WriteReq MSHR misses (Count)
system.cpu0.dcache.WriteReq.mshrMisses::total           76                       # number of WriteReq MSHR misses (Count)
system.cpu0.dcache.WriteReq.mshrMissLatency::cpu0.data      4224576                       # number of WriteReq MSHR miss ticks (Tick)
system.cpu0.dcache.WriteReq.mshrMissLatency::total      4224576                       # number of WriteReq MSHR miss ticks (Tick)
system.cpu0.dcache.WriteReq.mshrMissRate::cpu0.data     0.036804                       # mshr miss rate for WriteReq accesses (Ratio)
system.cpu0.dcache.WriteReq.mshrMissRate::total     0.036804                       # mshr miss rate for WriteReq accesses (Ratio)
system.cpu0.dcache.WriteReq.avgMshrMissLatency::cpu0.data 55586.526316                       # average WriteReq mshr miss latency ((Tick/Count))
system.cpu0.dcache.WriteReq.avgMshrMissLatency::total 55586.526316                       # average WriteReq mshr miss latency ((Tick/Count))
system.cpu0.dcache.power_state.pwrStateResidencyTicks::UNDEFINED     33361888                       # Cumulative time (in ticks) in various power states (Tick)
system.cpu0.dcache.tags.tagsInUse           94.566838                       # Average ticks per tags in use ((Tick/Count))
system.cpu0.dcache.tags.totalRefs                5542                       # Total number of references to valid blocks. (Count)
system.cpu0.dcache.tags.sampledRefs               159                       # Sample count of references to valid blocks. (Count)
system.cpu0.dcache.tags.avgRefs             34.855346                       # Average number of references to valid blocks. ((Count/Count))
system.cpu0.dcache.tags.warmupTick             146000                       # The tick when the warmup percentage was hit. (Tick)
system.cpu0.dcache.tags.occupancies::cpu0.data    94.566838                       # Average occupied blocks per tick, per requestor ((Count/Tick))
system.cpu0.dcache.tags.avgOccs::cpu0.data     0.092350                       # Average percentage of cache occupancy ((Ratio/Tick))
system.cpu0.dcache.tags.avgOccs::total       0.092350                       # Average percentage of cache occupancy ((Ratio/Tick))
system.cpu0.dcache.tags.occupanciesTaskId::1024          159                       # Occupied blocks per task id (Count)
system.cpu0.dcache.tags.ageTaskId_1024::0           25                       # Occupied blocks per task id, per block age (Count)
system.cpu0.dcache.tags.ageTaskId_1024::1          134                       # Occupied blocks per task id, per block age (Count)
system.cpu0.dcache.tags.ratioOccsTaskId::1024     0.155273                       # Ratio of occupied blocks and all blocks, per task id (Ratio)
system.cpu0.dcache.tags.tagAccesses             11251                       # Number of tag accesses (Count)
system.cpu0.dcache.tags.dataAccesses            11251                       # Number of data accesses (Count)
system.cpu0.dcache.tags.power_state.pwrStateResidencyTicks::UNDEFINED     33361888                       # Cumulative time (in ticks) in various power states (Tick)
system.cpu0.exec_context.thread_0.numInsts        18395                       # Number of instructions committed (Count)
system.cpu0.exec_context.thread_0.numOps        19310                       # Number of ops (including micro ops) committed (Count)
system.cpu0.exec_context.thread_0.numIntAluAccesses        17930                       # Number of integer alu accesses (Count)
system.cpu0.exec_context.thread_0.numFpAluAccesses            0                       # Number of float alu accesses (Count)
system.cpu0.exec_context.thread_0.numVecAluAccesses            0                       # Number of vector alu accesses (Count)
system.cpu0.exec_context.thread_0.numCallsReturns          237                       # Number of times a function call or return occured (Count)
system.cpu0.exec_context.thread_0.numCondCtrlInsts         1386                       # Number of instructions that are conditional controls (Count)
system.cpu0.exec_context.thread_0.numIntInsts        17930                       # Number of integer instructions (Count)
system.cpu0.exec_context.thread_0.numFpInsts            0                       # Number of float instructions (Count)
system.cpu0.exec_context.thread_0.numVecInsts            0                       # Number of vector instructions (Count)
system.cpu0.exec_context.thread_0.numIntRegReads        22308                       # Number of times the integer registers were read (Count)
system.cpu0.exec_context.thread_0.numIntRegWrites        14343                       # Number of times the integer registers were written (Count)
system.cpu0.exec_context.thread_0.numFpRegReads            0                       # Number of times the floating registers were read (Count)
system.cpu0.exec_context.thread_0.numFpRegWrites            0                       # Number of times the floating registers were written (Count)
system.cpu0.exec_context.thread_0.numVecRegReads           42                       # Number of times the vector registers were read (Count)
system.cpu0.exec_context.thread_0.numVecRegWrites           13                       # Number of times the vector registers were written (Count)
system.cpu0.exec_context.thread_0.numVecPredRegReads            0                       # Number of times the predicate registers were read (Count)
system.cpu0.exec_context.thread_0.numVecPredRegWrites            0                       # Number of times the predicate registers were written (Count)
system.cpu0.exec_context.thread_0.numCCRegReads        68247                       # Number of times the CC registers were read (Count)
system.cpu0.exec_context.thread_0.numCCRegWrites        13151                       # Number of times the CC registers were written (Count)
system.cpu0.exec_context.thread_0.numMiscRegReads         5721                       # Number of times the Misc registers were read (Count)
system.cpu0.exec_context.thread_0.numMiscRegWrites           28                       # Number of times the Misc registers were written (Count)
system.cpu0.exec_context.thread_0.numMemRefs         5603                       # Number of memory refs (Count)
system.cpu0.exec_context.thread_0.numLoadInsts         3495                       # Number of load instructions (Count)
system.cpu0.exec_context.thread_0.numStoreInsts         2108                       # Number of store instructions (Count)
system.cpu0.exec_context.thread_0.numIdleCycles     0.004202                       # Number of idle cycles (Cycle)
system.cpu0.exec_context.thread_0.numBusyCycles 140175.995798                       # Number of busy cycles (Cycle)
system.cpu0.exec_context.thread_0.notIdleFraction     1.000000                       # Percentage of non-idle cycles (Ratio)
system.cpu0.exec_context.thread_0.idleFraction     0.000000                       # Percentage of idle cycles (Ratio)
system.cpu0.exec_context.thread_0.numBranches         1770                       # Number of branches fetched (Count)
system.cpu0.exec_context.thread_0.statExecutedInstType::No_OpClass            0      0.00%      0.00% # Class of executed instruction. (Count)
system.cpu0.exec_context.thread_0.statExecutedInstType::IntAlu        13334     68.71%     68.71% # Class of executed instruction. (Count)
system.cpu0.exec_context.thread_0.statExecutedInstType::IntMult          447      2.30%     71.02% # Class of executed instruction. (Count)
system.cpu0.exec_context.thread_0.statExecutedInstType::IntDiv            0      0.00%     71.02% # Class of executed instruction. (Count)
system.cpu0.exec_context.thread_0.statExecutedInstType::FloatAdd            0      0.00%     71.02% # Class of executed instruction. (Count)
system.cpu0.exec_context.thread_0.statExecutedInstType::FloatCmp            0      0.00%     71.02% # Class of executed instruction. (Count)
system.cpu0.exec_context.thread_0.statExecutedInstType::FloatCvt            0      0.00%     71.02% # Class of executed instruction. (Count)
system.cpu0.exec_context.thread_0.statExecutedInstType::FloatMult            0      0.00%     71.02% # Class of executed instruction. (Count)
system.cpu0.exec_context.thread_0.statExecutedInstType::FloatMultAcc            0      0.00%     71.02% # Class of executed instruction. (Count)
system.cpu0.exec_context.thread_0.statExecutedInstType::FloatDiv            0      0.00%     71.02% # Class of executed instruction. (Count)
system.cpu0.exec_context.thread_0.statExecutedInstType::FloatMisc            0      0.00%     71.02% # Class of executed instruction. (Count)
system.cpu0.exec_context.thread_0.statExecutedInstType::FloatSqrt            0      0.00%     71.02% # Class of executed instruction. (Count)
system.cpu0.exec_context.thread_0.statExecutedInstType::SimdAdd            0      0.00%     71.02% # Class of executed instruction. (Count)
system.cpu0.exec_context.thread_0.statExecutedInstType::SimdAddAcc            0      0.00%     71.02% # Class of executed instruction. (Count)
system.cpu0.exec_context.thread_0.statExecutedInstType::SimdAlu            0      0.00%     71.02% # Class of executed instruction. (Count)
system.cpu0.exec_context.thread_0.statExecutedInstType::SimdCmp            0      0.00%     71.02% # Class of executed instruction. (Count)
system.cpu0.exec_context.thread_0.statExecutedInstType::SimdCvt            0      0.00%     71.02% # Class of executed instruction. (Count)
system.cpu0.exec_context.thread_0.statExecutedInstType::SimdMisc            0      0.00%     71.02% # Class of executed instruction. (Count)
system.cpu0.exec_context.thread_0.statExecutedInstType::SimdMult            0      0.00%     71.02% # Class of executed instruction. (Count)
system.cpu0.exec_context.thread_0.statExecutedInstType::SimdMultAcc            0      0.00%     71.02% # Class of executed instruction. (Count)
system.cpu0.exec_context.thread_0.statExecutedInstType::SimdShift            0      0.00%     71.02% # Class of executed instruction. (Count)
system.cpu0.exec_context.thread_0.statExecutedInstType::SimdShiftAcc            0      0.00%     71.02% # Class of executed instruction. (Count)
system.cpu0.exec_context.thread_0.statExecutedInstType::SimdDiv            0      0.00%     71.02% # Class of executed instruction. (Count)
system.cpu0.exec_context.thread_0.statExecutedInstType::SimdSqrt            0      0.00%     71.02% # Class of executed instruction. (Count)
system.cpu0.exec_context.thread_0.statExecutedInstType::SimdFloatAdd            0      0.00%     71.02% # Class of executed instruction. (Count)
system.cpu0.exec_context.thread_0.statExecutedInstType::SimdFloatAlu            0      0.00%     71.02% # Class of executed instruction. (Count)
system.cpu0.exec_context.thread_0.statExecutedInstType::SimdFloatCmp            0      0.00%     71.02% # Class of executed instruction. (Count)
system.cpu0.exec_context.thread_0.statExecutedInstType::SimdFloatCvt            0      0.00%     71.02% # Class of executed instruction. (Count)
system.cpu0.exec_context.thread_0.statExecutedInstType::SimdFloatDiv            0      0.00%     71.02% # Class of executed instruction. (Count)
system.cpu0.exec_context.thread_0.statExecutedInstType::SimdFloatMisc           21      0.11%     71.13% # Class of executed instruction. (Count)
system.cpu0.exec_context.thread_0.statExecutedInstType::SimdFloatMult            0      0.00%     71.13% # Class of executed instruction. (Count)
system.cpu0.exec_context.thread_0.statExecutedInstType::SimdFloatMultAcc            0      0.00%     71.13% # Class of executed instruction. (Count)
system.cpu0.exec_context.thread_0.statExecutedInstType::SimdFloatSqrt            0      0.00%     71.13% # Class of executed instruction. (Count)
system.cpu0.exec_context.thread_0.statExecutedInstType::SimdReduceAdd            0      0.00%     71.13% # Class of executed instruction. (Count)
system.cpu0.exec_context.thread_0.statExecutedInstType::SimdReduceAlu            0      0.00%     71.13% # Class of executed instruction. (Count)
system.cpu0.exec_context.thread_0.statExecutedInstType::SimdReduceCmp            0      0.00%     71.13% # Class of executed instruction. (Count)
system.cpu0.exec_context.thread_0.statExecutedInstType::SimdFloatReduceAdd            0      0.00%     71.13% # Class of executed instruction. (Count)
system.cpu0.exec_context.thread_0.statExecutedInstType::SimdFloatReduceCmp            0      0.00%     71.13% # Class of executed instruction. (Count)
system.cpu0.exec_context.thread_0.statExecutedInstType::SimdAes            0      0.00%     71.13% # Class of executed instruction. (Count)
system.cpu0.exec_context.thread_0.statExecutedInstType::SimdAesMix            0      0.00%     71.13% # Class of executed instruction. (Count)
system.cpu0.exec_context.thread_0.statExecutedInstType::SimdSha1Hash            0      0.00%     71.13% # Class of executed instruction. (Count)
system.cpu0.exec_context.thread_0.statExecutedInstType::SimdSha1Hash2            0      0.00%     71.13% # Class of executed instruction. (Count)
system.cpu0.exec_context.thread_0.statExecutedInstType::SimdSha256Hash            0      0.00%     71.13% # Class of executed instruction. (Count)
system.cpu0.exec_context.thread_0.statExecutedInstType::SimdSha256Hash2            0      0.00%     71.13% # Class of executed instruction. (Count)
system.cpu0.exec_context.thread_0.statExecutedInstType::SimdShaSigma2            0      0.00%     71.13% # Class of executed instruction. (Count)
system.cpu0.exec_context.thread_0.statExecutedInstType::SimdShaSigma3            0      0.00%     71.13% # Class of executed instruction. (Count)
system.cpu0.exec_context.thread_0.statExecutedInstType::SimdPredAlu            0      0.00%     71.13% # Class of executed instruction. (Count)
system.cpu0.exec_context.thread_0.statExecutedInstType::MemRead         3495     18.01%     89.14% # Class of executed instruction. (Count)
system.cpu0.exec_context.thread_0.statExecutedInstType::MemWrite         2108     10.86%    100.00% # Class of executed instruction. (Count)
system.cpu0.exec_context.thread_0.statExecutedInstType::FloatMemRead            0      0.00%    100.00% # Class of executed instruction. (Count)
system.cpu0.exec_context.thread_0.statExecutedInstType::FloatMemWrite            0      0.00%    100.00% # Class of executed instruction. (Count)
system.cpu0.exec_context.thread_0.statExecutedInstType::IprAccess            0      0.00%    100.00% # Class of executed instruction. (Count)
system.cpu0.exec_context.thread_0.statExecutedInstType::InstPrefetch            0      0.00%    100.00% # Class of executed instruction. (Count)
system.cpu0.exec_context.thread_0.statExecutedInstType::total        19405                       # Class of executed instruction. (Count)
system.cpu0.icache.demandHits::cpu0.inst        20386                       # number of demand (read+write) hits (Count)
system.cpu0.icache.demandHits::total            20386                       # number of demand (read+write) hits (Count)
system.cpu0.icache.overallHits::cpu0.inst        20386                       # number of overall hits (Count)
system.cpu0.icache.overallHits::total           20386                       # number of overall hits (Count)
system.cpu0.icache.demandMisses::cpu0.inst          208                       # number of demand (read+write) misses (Count)
system.cpu0.icache.demandMisses::total            208                       # number of demand (read+write) misses (Count)
system.cpu0.icache.overallMisses::cpu0.inst          208                       # number of overall misses (Count)
system.cpu0.icache.overallMisses::total           208                       # number of overall misses (Count)
system.cpu0.icache.demandMissLatency::cpu0.inst     11602024                       # number of demand (read+write) miss ticks (Tick)
system.cpu0.icache.demandMissLatency::total     11602024                       # number of demand (read+write) miss ticks (Tick)
system.cpu0.icache.overallMissLatency::cpu0.inst     11602024                       # number of overall miss ticks (Tick)
system.cpu0.icache.overallMissLatency::total     11602024                       # number of overall miss ticks (Tick)
system.cpu0.icache.demandAccesses::cpu0.inst        20594                       # number of demand (read+write) accesses (Count)
system.cpu0.icache.demandAccesses::total        20594                       # number of demand (read+write) accesses (Count)
system.cpu0.icache.overallAccesses::cpu0.inst        20594                       # number of overall (read+write) accesses (Count)
system.cpu0.icache.overallAccesses::total        20594                       # number of overall (read+write) accesses (Count)
system.cpu0.icache.demandMissRate::cpu0.inst     0.010100                       # miss rate for demand accesses (Ratio)
system.cpu0.icache.demandMissRate::total     0.010100                       # miss rate for demand accesses (Ratio)
system.cpu0.icache.overallMissRate::cpu0.inst     0.010100                       # miss rate for overall accesses (Ratio)
system.cpu0.icache.overallMissRate::total     0.010100                       # miss rate for overall accesses (Ratio)
system.cpu0.icache.demandAvgMissLatency::cpu0.inst 55778.961538                       # average overall miss latency in ticks ((Tick/Count))
system.cpu0.icache.demandAvgMissLatency::total 55778.961538                       # average overall miss latency in ticks ((Tick/Count))
system.cpu0.icache.overallAvgMissLatency::cpu0.inst 55778.961538                       # average overall miss latency ((Tick/Count))
system.cpu0.icache.overallAvgMissLatency::total 55778.961538                       # average overall miss latency ((Tick/Count))
system.cpu0.icache.blockedCycles::no_mshrs            0                       # number of cycles access was blocked (Cycle)
system.cpu0.icache.blockedCycles::no_targets            0                       # number of cycles access was blocked (Cycle)
system.cpu0.icache.blockedCauses::no_mshrs            0                       # number of times access was blocked (Count)
system.cpu0.icache.blockedCauses::no_targets            0                       # number of times access was blocked (Count)
system.cpu0.icache.avgBlocked::no_mshrs           nan                       # average number of cycles each access was blocked ((Cycle/Count))
system.cpu0.icache.avgBlocked::no_targets          nan                       # average number of cycles each access was blocked ((Cycle/Count))
system.cpu0.icache.writebacks::writebacks            1                       # number of writebacks (Count)
system.cpu0.icache.writebacks::total                1                       # number of writebacks (Count)
system.cpu0.icache.demandMshrMisses::cpu0.inst          208                       # number of demand (read+write) MSHR misses (Count)
system.cpu0.icache.demandMshrMisses::total          208                       # number of demand (read+write) MSHR misses (Count)
system.cpu0.icache.overallMshrMisses::cpu0.inst          208                       # number of overall MSHR misses (Count)
system.cpu0.icache.overallMshrMisses::total          208                       # number of overall MSHR misses (Count)
system.cpu0.icache.demandMshrMissLatency::cpu0.inst     11481188                       # number of demand (read+write) MSHR miss ticks (Tick)
system.cpu0.icache.demandMshrMissLatency::total     11481188                       # number of demand (read+write) MSHR miss ticks (Tick)
system.cpu0.icache.overallMshrMissLatency::cpu0.inst     11481188                       # number of overall MSHR miss ticks (Tick)
system.cpu0.icache.overallMshrMissLatency::total     11481188                       # number of overall MSHR miss ticks (Tick)
system.cpu0.icache.demandMshrMissRate::cpu0.inst     0.010100                       # mshr miss ratio for demand accesses (Ratio)
system.cpu0.icache.demandMshrMissRate::total     0.010100                       # mshr miss ratio for demand accesses (Ratio)
system.cpu0.icache.overallMshrMissRate::cpu0.inst     0.010100                       # mshr miss ratio for overall accesses (Ratio)
system.cpu0.icache.overallMshrMissRate::total     0.010100                       # mshr miss ratio for overall accesses (Ratio)
system.cpu0.icache.demandAvgMshrMissLatency::cpu0.inst 55198.019231                       # average overall mshr miss latency ((Tick/Count))
system.cpu0.icache.demandAvgMshrMissLatency::total 55198.019231                       # average overall mshr miss latency ((Tick/Count))
system.cpu0.icache.overallAvgMshrMissLatency::cpu0.inst 55198.019231                       # average overall mshr miss latency ((Tick/Count))
system.cpu0.icache.overallAvgMshrMissLatency::total 55198.019231                       # average overall mshr miss latency ((Tick/Count))
system.cpu0.icache.replacements                     1                       # number of replacements (Count)
system.cpu0.icache.ReadReq.hits::cpu0.inst        20386                       # number of ReadReq hits (Count)
system.cpu0.icache.ReadReq.hits::total          20386                       # number of ReadReq hits (Count)
system.cpu0.icache.ReadReq.misses::cpu0.inst          208                       # number of ReadReq misses (Count)
system.cpu0.icache.ReadReq.misses::total          208                       # number of ReadReq misses (Count)
system.cpu0.icache.ReadReq.missLatency::cpu0.inst     11602024                       # number of ReadReq miss ticks (Tick)
system.cpu0.icache.ReadReq.missLatency::total     11602024                       # number of ReadReq miss ticks (Tick)
system.cpu0.icache.ReadReq.accesses::cpu0.inst        20594                       # number of ReadReq accesses(hits+misses) (Count)
system.cpu0.icache.ReadReq.accesses::total        20594                       # number of ReadReq accesses(hits+misses) (Count)
system.cpu0.icache.ReadReq.missRate::cpu0.inst     0.010100                       # miss rate for ReadReq accesses (Ratio)
system.cpu0.icache.ReadReq.missRate::total     0.010100                       # miss rate for ReadReq accesses (Ratio)
system.cpu0.icache.ReadReq.avgMissLatency::cpu0.inst 55778.961538                       # average ReadReq miss latency ((Tick/Count))
system.cpu0.icache.ReadReq.avgMissLatency::total 55778.961538                       # average ReadReq miss latency ((Tick/Count))
system.cpu0.icache.ReadReq.mshrMisses::cpu0.inst          208                       # number of ReadReq MSHR misses (Count)
system.cpu0.icache.ReadReq.mshrMisses::total          208                       # number of ReadReq MSHR misses (Count)
system.cpu0.icache.ReadReq.mshrMissLatency::cpu0.inst     11481188                       # number of ReadReq MSHR miss ticks (Tick)
system.cpu0.icache.ReadReq.mshrMissLatency::total     11481188                       # number of ReadReq MSHR miss ticks (Tick)
system.cpu0.icache.ReadReq.mshrMissRate::cpu0.inst     0.010100                       # mshr miss rate for ReadReq accesses (Ratio)
system.cpu0.icache.ReadReq.mshrMissRate::total     0.010100                       # mshr miss rate for ReadReq accesses (Ratio)
system.cpu0.icache.ReadReq.avgMshrMissLatency::cpu0.inst 55198.019231                       # average ReadReq mshr miss latency ((Tick/Count))
system.cpu0.icache.ReadReq.avgMshrMissLatency::total 55198.019231                       # average ReadReq mshr miss latency ((Tick/Count))
system.cpu0.icache.power_state.pwrStateResidencyTicks::UNDEFINED     33361888                       # Cumulative time (in ticks) in various power states (Tick)
system.cpu0.icache.tags.tagsInUse          124.142911                       # Average ticks per tags in use ((Tick/Count))
system.cpu0.icache.tags.totalRefs               20594                       # Total number of references to valid blocks. (Count)
system.cpu0.icache.tags.sampledRefs               208                       # Sample count of references to valid blocks. (Count)
system.cpu0.icache.tags.avgRefs             99.009615                       # Average number of references to valid blocks. ((Count/Count))
system.cpu0.icache.tags.warmupTick              77000                       # The tick when the warmup percentage was hit. (Tick)
system.cpu0.icache.tags.occupancies::cpu0.inst   124.142911                       # Average occupied blocks per tick, per requestor ((Count/Tick))
system.cpu0.icache.tags.avgOccs::cpu0.inst     0.242467                       # Average percentage of cache occupancy ((Ratio/Tick))
system.cpu0.icache.tags.avgOccs::total       0.242467                       # Average percentage of cache occupancy ((Ratio/Tick))
system.cpu0.icache.tags.occupanciesTaskId::1024          207                       # Occupied blocks per task id (Count)
system.cpu0.icache.tags.ageTaskId_1024::0           26                       # Occupied blocks per task id, per block age (Count)
system.cpu0.icache.tags.ageTaskId_1024::1          181                       # Occupied blocks per task id, per block age (Count)
system.cpu0.icache.tags.ratioOccsTaskId::1024     0.404297                       # Ratio of occupied blocks and all blocks, per task id (Ratio)
system.cpu0.icache.tags.tagAccesses             41396                       # Number of tag accesses (Count)
system.cpu0.icache.tags.dataAccesses            41396                       # Number of data accesses (Count)
system.cpu0.icache.tags.power_state.pwrStateResidencyTicks::UNDEFINED     33361888                       # Cumulative time (in ticks) in various power states (Tick)
system.cpu0.mmu.alignFaults                         0                       # Number of MMU faults due to alignment restrictions (Count)
system.cpu0.mmu.prefetchFaults                      0                       # Number of MMU faults due to prefetch (Count)
system.cpu0.mmu.domainFaults                        0                       # Number of MMU faults due to domain restrictions (Count)
system.cpu0.mmu.permsFaults                         0                       # Number of MMU faults due to permissions restrictions (Count)
system.cpu0.mmu.dtb.readHits                        0                       # Read hits (Count)
system.cpu0.mmu.dtb.readMisses                      0                       # Read misses (Count)
system.cpu0.mmu.dtb.writeHits                       0                       # Write hits (Count)
system.cpu0.mmu.dtb.writeMisses                     0                       # Write misses (Count)
system.cpu0.mmu.dtb.inserts                         0                       # Number of times an entry is inserted into the TLB (Count)
system.cpu0.mmu.dtb.flushTlb                        0                       # Number of times complete TLB was flushed (Count)
system.cpu0.mmu.dtb.flushTlbMva                     0                       # Number of times TLB was flushed by MVA (Count)
system.cpu0.mmu.dtb.flushTlbMvaAsid                 0                       # Number of times TLB was flushed by MVA & ASID (Count)
system.cpu0.mmu.dtb.flushTlbAsid                    0                       # Number of times TLB was flushed by ASID (Count)
system.cpu0.mmu.dtb.flushedEntries                  0                       # Number of entries that have been flushed from TLB (Count)
system.cpu0.mmu.dtb.readAccesses                    0                       # Read accesses (Count)
system.cpu0.mmu.dtb.writeAccesses                   0                       # Write accesses (Count)
system.cpu0.mmu.dtb.hits                            0                       # Total TLB (inst and data) hits (Count)
system.cpu0.mmu.dtb.misses                          0                       # Total TLB (inst and data) misses (Count)
system.cpu0.mmu.dtb.accesses                        0                       # Total TLB (inst and data) accesses (Count)
system.cpu0.mmu.dtb_walker.walks                    0                       # Table walker walks requested (Count)
system.cpu0.mmu.dtb_walker.requestOrigin_Requested::Data            0                       # Table walker requests started/completed, data/inst (Count)
system.cpu0.mmu.dtb_walker.requestOrigin_Requested::Inst            0                       # Table walker requests started/completed, data/inst (Count)
system.cpu0.mmu.dtb_walker.requestOrigin_Requested::total            0                       # Table walker requests started/completed, data/inst (Count)
system.cpu0.mmu.dtb_walker.requestOrigin_Completed::Data            0                       # Table walker requests started/completed, data/inst (Count)
system.cpu0.mmu.dtb_walker.requestOrigin_Completed::Inst            0                       # Table walker requests started/completed, data/inst (Count)
system.cpu0.mmu.dtb_walker.requestOrigin_Completed::total            0                       # Table walker requests started/completed, data/inst (Count)
system.cpu0.mmu.dtb_walker.requestOrigin::total            0                       # Table walker requests started/completed, data/inst (Count)
system.cpu0.mmu.dtb_walker.power_state.pwrStateResidencyTicks::UNDEFINED     33361888                       # Cumulative time (in ticks) in various power states (Tick)
system.cpu0.mmu.itb.instHits                        0                       # Inst hits (Count)
system.cpu0.mmu.itb.instMisses                      0                       # Inst misses (Count)
system.cpu0.mmu.itb.inserts                         0                       # Number of times an entry is inserted into the TLB (Count)
system.cpu0.mmu.itb.flushTlb                        0                       # Number of times complete TLB was flushed (Count)
system.cpu0.mmu.itb.flushTlbMva                     0                       # Number of times TLB was flushed by MVA (Count)
system.cpu0.mmu.itb.flushTlbMvaAsid                 0                       # Number of times TLB was flushed by MVA & ASID (Count)
system.cpu0.mmu.itb.flushTlbAsid                    0                       # Number of times TLB was flushed by ASID (Count)
system.cpu0.mmu.itb.flushedEntries                  0                       # Number of entries that have been flushed from TLB (Count)
system.cpu0.mmu.itb.instAccesses                    0                       # Inst accesses (Count)
system.cpu0.mmu.itb.hits                            0                       # Total TLB (inst and data) hits (Count)
system.cpu0.mmu.itb.misses                          0                       # Total TLB (inst and data) misses (Count)
system.cpu0.mmu.itb.accesses                        0                       # Total TLB (inst and data) accesses (Count)
system.cpu0.mmu.itb_walker.walks                    0                       # Table walker walks requested (Count)
system.cpu0.mmu.itb_walker.requestOrigin_Requested::Data            0                       # Table walker requests started/completed, data/inst (Count)
system.cpu0.mmu.itb_walker.requestOrigin_Requested::Inst            0                       # Table walker requests started/completed, data/inst (Count)
system.cpu0.mmu.itb_walker.requestOrigin_Requested::total            0                       # Table walker requests started/completed, data/inst (Count)
system.cpu0.mmu.itb_walker.requestOrigin_Completed::Data            0                       # Table walker requests started/completed, data/inst (Count)
system.cpu0.mmu.itb_walker.requestOrigin_Completed::Inst            0                       # Table walker requests started/completed, data/inst (Count)
system.cpu0.mmu.itb_walker.requestOrigin_Completed::total            0                       # Table walker requests started/completed, data/inst (Count)
system.cpu0.mmu.itb_walker.requestOrigin::total            0                       # Table walker requests started/completed, data/inst (Count)
system.cpu0.mmu.itb_walker.power_state.pwrStateResidencyTicks::UNDEFINED     33361888                       # Cumulative time (in ticks) in various power states (Tick)
system.cpu0.mmu.l2_shared.instHits                  0                       # Inst hits (Count)
system.cpu0.mmu.l2_shared.instMisses                0                       # Inst misses (Count)
system.cpu0.mmu.l2_shared.inserts                   0                       # Number of times an entry is inserted into the TLB (Count)
system.cpu0.mmu.l2_shared.flushTlb                  0                       # Number of times complete TLB was flushed (Count)
system.cpu0.mmu.l2_shared.flushTlbMva               0                       # Number of times TLB was flushed by MVA (Count)
system.cpu0.mmu.l2_shared.flushTlbMvaAsid            0                       # Number of times TLB was flushed by MVA & ASID (Count)
system.cpu0.mmu.l2_shared.flushTlbAsid              0                       # Number of times TLB was flushed by ASID (Count)
system.cpu0.mmu.l2_shared.flushedEntries            0                       # Number of entries that have been flushed from TLB (Count)
system.cpu0.mmu.l2_shared.instAccesses              0                       # Inst accesses (Count)
system.cpu0.mmu.l2_shared.hits                      0                       # Total TLB (inst and data) hits (Count)
system.cpu0.mmu.l2_shared.misses                    0                       # Total TLB (inst and data) misses (Count)
system.cpu0.mmu.l2_shared.accesses                  0                       # Total TLB (inst and data) accesses (Count)
system.cpu0.mmu.stage2_dtb.readHits                 0                       # Read hits (Count)
system.cpu0.mmu.stage2_dtb.readMisses               0                       # Read misses (Count)
system.cpu0.mmu.stage2_dtb.writeHits                0                       # Write hits (Count)
system.cpu0.mmu.stage2_dtb.writeMisses              0                       # Write misses (Count)
system.cpu0.mmu.stage2_dtb.inserts                  0                       # Number of times an entry is inserted into the TLB (Count)
system.cpu0.mmu.stage2_dtb.flushTlb                 0                       # Number of times complete TLB was flushed (Count)
system.cpu0.mmu.stage2_dtb.flushTlbMva              0                       # Number of times TLB was flushed by MVA (Count)
system.cpu0.mmu.stage2_dtb.flushTlbMvaAsid            0                       # Number of times TLB was flushed by MVA & ASID (Count)
system.cpu0.mmu.stage2_dtb.flushTlbAsid             0                       # Number of times TLB was flushed by ASID (Count)
system.cpu0.mmu.stage2_dtb.flushedEntries            0                       # Number of entries that have been flushed from TLB (Count)
system.cpu0.mmu.stage2_dtb.readAccesses             0                       # Read accesses (Count)
system.cpu0.mmu.stage2_dtb.writeAccesses            0                       # Write accesses (Count)
system.cpu0.mmu.stage2_dtb.hits                     0                       # Total TLB (inst and data) hits (Count)
system.cpu0.mmu.stage2_dtb.misses                   0                       # Total TLB (inst and data) misses (Count)
system.cpu0.mmu.stage2_dtb.accesses                 0                       # Total TLB (inst and data) accesses (Count)
system.cpu0.mmu.stage2_dtb_walker.walks             0                       # Table walker walks requested (Count)
system.cpu0.mmu.stage2_dtb_walker.requestOrigin_Requested::Data            0                       # Table walker requests started/completed, data/inst (Count)
system.cpu0.mmu.stage2_dtb_walker.requestOrigin_Requested::Inst            0                       # Table walker requests started/completed, data/inst (Count)
system.cpu0.mmu.stage2_dtb_walker.requestOrigin_Requested::total            0                       # Table walker requests started/completed, data/inst (Count)
system.cpu0.mmu.stage2_dtb_walker.requestOrigin_Completed::Data            0                       # Table walker requests started/completed, data/inst (Count)
system.cpu0.mmu.stage2_dtb_walker.requestOrigin_Completed::Inst            0                       # Table walker requests started/completed, data/inst (Count)
system.cpu0.mmu.stage2_dtb_walker.requestOrigin_Completed::total            0                       # Table walker requests started/completed, data/inst (Count)
system.cpu0.mmu.stage2_dtb_walker.requestOrigin::total            0                       # Table walker requests started/completed, data/inst (Count)
system.cpu0.mmu.stage2_dtb_walker.power_state.pwrStateResidencyTicks::UNDEFINED     33361888                       # Cumulative time (in ticks) in various power states (Tick)
system.cpu0.mmu.stage2_itb.instHits                 0                       # Inst hits (Count)
system.cpu0.mmu.stage2_itb.instMisses               0                       # Inst misses (Count)
system.cpu0.mmu.stage2_itb.inserts                  0                       # Number of times an entry is inserted into the TLB (Count)
system.cpu0.mmu.stage2_itb.flushTlb                 0                       # Number of times complete TLB was flushed (Count)
system.cpu0.mmu.stage2_itb.flushTlbMva              0                       # Number of times TLB was flushed by MVA (Count)
system.cpu0.mmu.stage2_itb.flushTlbMvaAsid            0                       # Number of times TLB was flushed by MVA & ASID (Count)
system.cpu0.mmu.stage2_itb.flushTlbAsid             0                       # Number of times TLB was flushed by ASID (Count)
system.cpu0.mmu.stage2_itb.flushedEntries            0                       # Number of entries that have been flushed from TLB (Count)
system.cpu0.mmu.stage2_itb.instAccesses             0                       # Inst accesses (Count)
system.cpu0.mmu.stage2_itb.hits                     0                       # Total TLB (inst and data) hits (Count)
system.cpu0.mmu.stage2_itb.misses                   0                       # Total TLB (inst and data) misses (Count)
system.cpu0.mmu.stage2_itb.accesses                 0                       # Total TLB (inst and data) accesses (Count)
system.cpu0.mmu.stage2_itb_walker.walks             0                       # Table walker walks requested (Count)
system.cpu0.mmu.stage2_itb_walker.requestOrigin_Requested::Data            0                       # Table walker requests started/completed, data/inst (Count)
system.cpu0.mmu.stage2_itb_walker.requestOrigin_Requested::Inst            0                       # Table walker requests started/completed, data/inst (Count)
system.cpu0.mmu.stage2_itb_walker.requestOrigin_Requested::total            0                       # Table walker requests started/completed, data/inst (Count)
system.cpu0.mmu.stage2_itb_walker.requestOrigin_Completed::Data            0                       # Table walker requests started/completed, data/inst (Count)
system.cpu0.mmu.stage2_itb_walker.requestOrigin_Completed::Inst            0                       # Table walker requests started/completed, data/inst (Count)
system.cpu0.mmu.stage2_itb_walker.requestOrigin_Completed::total            0                       # Table walker requests started/completed, data/inst (Count)
system.cpu0.mmu.stage2_itb_walker.requestOrigin::total            0                       # Table walker requests started/completed, data/inst (Count)
system.cpu0.mmu.stage2_itb_walker.power_state.pwrStateResidencyTicks::UNDEFINED     33361888                       # Cumulative time (in ticks) in various power states (Tick)
system.cpu0.power_state.pwrStateResidencyTicks::ON     33361888                       # Cumulative time (in ticks) in various power states (Tick)
system.cpu0.thread_0.numInsts                       0                       # Number of Instructions committed (Count)
system.cpu0.thread_0.numOps                         0                       # Number of Ops committed (Count)
system.cpu0.thread_0.numMemRefs                     0                       # Number of Memory References (Count)
system.cpu0.workload.numSyscalls                    9                       # Number of system calls (Count)
system.cpu1.numCycles                               0                       # Number of cpu cycles simulated (Cycle)
system.cpu1.numWorkItemsStarted                     0                       # Number of work items this cpu started (Count)
system.cpu1.numWorkItemsCompleted                   0                       # Number of work items this cpu completed (Count)
system.cpu1.dcache.blockedCycles::no_mshrs            0                       # number of cycles access was blocked (Cycle)
system.cpu1.dcache.blockedCycles::no_targets            0                       # number of cycles access was blocked (Cycle)
system.cpu1.dcache.blockedCauses::no_mshrs            0                       # number of times access was blocked (Count)
system.cpu1.dcache.blockedCauses::no_targets            0                       # number of times access was blocked (Count)
system.cpu1.dcache.avgBlocked::no_mshrs           nan                       # average number of cycles each access was blocked ((Cycle/Count))
system.cpu1.dcache.avgBlocked::no_targets          nan                       # average number of cycles each access was blocked ((Cycle/Count))
system.cpu1.dcache.replacements                     0                       # number of replacements (Count)
system.cpu1.dcache.power_state.pwrStateResidencyTicks::UNDEFINED     33361888                       # Cumulative time (in ticks) in various power states (Tick)
system.cpu1.dcache.tags.tagsInUse                   0                       # Average ticks per tags in use ((Tick/Count))
system.cpu1.dcache.tags.totalRefs                   0                       # Total number of references to valid blocks. (Count)
system.cpu1.dcache.tags.sampledRefs                 0                       # Sample count of references to valid blocks. (Count)
system.cpu1.dcache.tags.avgRefs                   nan                       # Average number of references to valid blocks. ((Count/Count))
system.cpu1.dcache.tags.warmupTick                  0                       # The tick when the warmup percentage was hit. (Tick)
system.cpu1.dcache.tags.tagAccesses                 0                       # Number of tag accesses (Count)
system.cpu1.dcache.tags.dataAccesses                0                       # Number of data accesses (Count)
system.cpu1.dcache.tags.power_state.pwrStateResidencyTicks::UNDEFINED     33361888                       # Cumulative time (in ticks) in various power states (Tick)
system.cpu1.exec_context.thread_0.numInsts            0                       # Number of instructions committed (Count)
system.cpu1.exec_context.thread_0.numOps            0                       # Number of ops (including micro ops) committed (Count)
system.cpu1.exec_context.thread_0.numIntAluAccesses            0                       # Number of integer alu accesses (Count)
system.cpu1.exec_context.thread_0.numFpAluAccesses            0                       # Number of float alu accesses (Count)
system.cpu1.exec_context.thread_0.numVecAluAccesses            0                       # Number of vector alu accesses (Count)
system.cpu1.exec_context.thread_0.numCallsReturns            0                       # Number of times a function call or return occured (Count)
system.cpu1.exec_context.thread_0.numCondCtrlInsts            0                       # Number of instructions that are conditional controls (Count)
system.cpu1.exec_context.thread_0.numIntInsts            0                       # Number of integer instructions (Count)
system.cpu1.exec_context.thread_0.numFpInsts            0                       # Number of float instructions (Count)
system.cpu1.exec_context.thread_0.numVecInsts            0                       # Number of vector instructions (Count)
system.cpu1.exec_context.thread_0.numIntRegReads            0                       # Number of times the integer registers were read (Count)
system.cpu1.exec_context.thread_0.numIntRegWrites            0                       # Number of times the integer registers were written (Count)
system.cpu1.exec_context.thread_0.numFpRegReads            0                       # Number of times the floating registers were read (Count)
system.cpu1.exec_context.thread_0.numFpRegWrites            0                       # Number of times the floating registers were written (Count)
system.cpu1.exec_context.thread_0.numVecRegReads            0                       # Number of times the vector registers were read (Count)
system.cpu1.exec_context.thread_0.numVecRegWrites            0                       # Number of times the vector registers were written (Count)
system.cpu1.exec_context.thread_0.numVecPredRegReads            0                       # Number of times the predicate registers were read (Count)
system.cpu1.exec_context.thread_0.numVecPredRegWrites            0                       # Number of times the predicate registers were written (Count)
system.cpu1.exec_context.thread_0.numMiscRegReads            0                       # Number of times the Misc registers were read (Count)
system.cpu1.exec_context.thread_0.numMiscRegWrites            0                       # Number of times the Misc registers were written (Count)
system.cpu1.exec_context.thread_0.numMemRefs            0                       # Number of memory refs (Count)
system.cpu1.exec_context.thread_0.numLoadInsts            0                       # Number of load instructions (Count)
system.cpu1.exec_context.thread_0.numStoreInsts            0                       # Number of store instructions (Count)
system.cpu1.exec_context.thread_0.numIdleCycles            0                       # Number of idle cycles (Cycle)
system.cpu1.exec_context.thread_0.numBusyCycles            0                       # Number of busy cycles (Cycle)
system.cpu1.exec_context.thread_0.notIdleFraction            0                       # Percentage of non-idle cycles (Ratio)
system.cpu1.exec_context.thread_0.idleFraction            1                       # Percentage of idle cycles (Ratio)
system.cpu1.exec_context.thread_0.statExecutedInstType::No_OpClass            0                       # Class of executed instruction. (Count)
system.cpu1.exec_context.thread_0.statExecutedInstType::IntAlu            0                       # Class of executed instruction. (Count)
system.cpu1.exec_context.thread_0.statExecutedInstType::IntMult            0                       # Class of executed instruction. (Count)
system.cpu1.exec_context.thread_0.statExecutedInstType::IntDiv            0                       # Class of executed instruction. (Count)
system.cpu1.exec_context.thread_0.statExecutedInstType::FloatAdd            0                       # Class of executed instruction. (Count)
system.cpu1.exec_context.thread_0.statExecutedInstType::FloatCmp            0                       # Class of executed instruction. (Count)
system.cpu1.exec_context.thread_0.statExecutedInstType::FloatCvt            0                       # Class of executed instruction. (Count)
system.cpu1.exec_context.thread_0.statExecutedInstType::FloatMult            0                       # Class of executed instruction. (Count)
system.cpu1.exec_context.thread_0.statExecutedInstType::FloatMultAcc            0                       # Class of executed instruction. (Count)
system.cpu1.exec_context.thread_0.statExecutedInstType::FloatDiv            0                       # Class of executed instruction. (Count)
system.cpu1.exec_context.thread_0.statExecutedInstType::FloatMisc            0                       # Class of executed instruction. (Count)
system.cpu1.exec_context.thread_0.statExecutedInstType::FloatSqrt            0                       # Class of executed instruction. (Count)
system.cpu1.exec_context.thread_0.statExecutedInstType::SimdAdd            0                       # Class of executed instruction. (Count)
system.cpu1.exec_context.thread_0.statExecutedInstType::SimdAddAcc            0                       # Class of executed instruction. (Count)
system.cpu1.exec_context.thread_0.statExecutedInstType::SimdAlu            0                       # Class of executed instruction. (Count)
system.cpu1.exec_context.thread_0.statExecutedInstType::SimdCmp            0                       # Class of executed instruction. (Count)
system.cpu1.exec_context.thread_0.statExecutedInstType::SimdCvt            0                       # Class of executed instruction. (Count)
system.cpu1.exec_context.thread_0.statExecutedInstType::SimdMisc            0                       # Class of executed instruction. (Count)
system.cpu1.exec_context.thread_0.statExecutedInstType::SimdMult            0                       # Class of executed instruction. (Count)
system.cpu1.exec_context.thread_0.statExecutedInstType::SimdMultAcc            0                       # Class of executed instruction. (Count)
system.cpu1.exec_context.thread_0.statExecutedInstType::SimdShift            0                       # Class of executed instruction. (Count)
system.cpu1.exec_context.thread_0.statExecutedInstType::SimdShiftAcc            0                       # Class of executed instruction. (Count)
system.cpu1.exec_context.thread_0.statExecutedInstType::SimdDiv            0                       # Class of executed instruction. (Count)
system.cpu1.exec_context.thread_0.statExecutedInstType::SimdSqrt            0                       # Class of executed instruction. (Count)
system.cpu1.exec_context.thread_0.statExecutedInstType::SimdFloatAdd            0                       # Class of executed instruction. (Count)
system.cpu1.exec_context.thread_0.statExecutedInstType::SimdFloatAlu            0                       # Class of executed instruction. (Count)
system.cpu1.exec_context.thread_0.statExecutedInstType::SimdFloatCmp            0                       # Class of executed instruction. (Count)
system.cpu1.exec_context.thread_0.statExecutedInstType::SimdFloatCvt            0                       # Class of executed instruction. (Count)
system.cpu1.exec_context.thread_0.statExecutedInstType::SimdFloatDiv            0                       # Class of executed instruction. (Count)
system.cpu1.exec_context.thread_0.statExecutedInstType::SimdFloatMisc            0                       # Class of executed instruction. (Count)
system.cpu1.exec_context.thread_0.statExecutedInstType::SimdFloatMult            0                       # Class of executed instruction. (Count)
system.cpu1.exec_context.thread_0.statExecutedInstType::SimdFloatMultAcc            0                       # Class of executed instruction. (Count)
system.cpu1.exec_context.thread_0.statExecutedInstType::SimdFloatSqrt            0                       # Class of executed instruction. (Count)
system.cpu1.exec_context.thread_0.statExecutedInstType::SimdReduceAdd            0                       # Class of executed instruction. (Count)
system.cpu1.exec_context.thread_0.statExecutedInstType::SimdReduceAlu            0                       # Class of executed instruction. (Count)
system.cpu1.exec_context.thread_0.statExecutedInstType::SimdReduceCmp            0                       # Class of executed instruction. (Count)
system.cpu1.exec_context.thread_0.statExecutedInstType::SimdFloatReduceAdd            0                       # Class of executed instruction. (Count)
system.cpu1.exec_context.thread_0.statExecutedInstType::SimdFloatReduceCmp            0                       # Class of executed instruction. (Count)
system.cpu1.exec_context.thread_0.statExecutedInstType::SimdAes            0                       # Class of executed instruction. (Count)
system.cpu1.exec_context.thread_0.statExecutedInstType::SimdAesMix            0                       # Class of executed instruction. (Count)
system.cpu1.exec_context.thread_0.statExecutedInstType::SimdSha1Hash            0                       # Class of executed instruction. (Count)
system.cpu1.exec_context.thread_0.statExecutedInstType::SimdSha1Hash2            0                       # Class of executed instruction. (Count)
system.cpu1.exec_context.thread_0.statExecutedInstType::SimdSha256Hash            0                       # Class of executed instruction. (Count)
system.cpu1.exec_context.thread_0.statExecutedInstType::SimdSha256Hash2            0                       # Class of executed instruction. (Count)
system.cpu1.exec_context.thread_0.statExecutedInstType::SimdShaSigma2            0                       # Class of executed instruction. (Count)
system.cpu1.exec_context.thread_0.statExecutedInstType::SimdShaSigma3            0                       # Class of executed instruction. (Count)
system.cpu1.exec_context.thread_0.statExecutedInstType::SimdPredAlu            0                       # Class of executed instruction. (Count)
system.cpu1.exec_context.thread_0.statExecutedInstType::MemRead            0                       # Class of executed instruction. (Count)
system.cpu1.exec_context.thread_0.statExecutedInstType::MemWrite            0                       # Class of executed instruction. (Count)
system.cpu1.exec_context.thread_0.statExecutedInstType::FloatMemRead            0                       # Class of executed instruction. (Count)
system.cpu1.exec_context.thread_0.statExecutedInstType::FloatMemWrite            0                       # Class of executed instruction. (Count)
system.cpu1.exec_context.thread_0.statExecutedInstType::IprAccess            0                       # Class of executed instruction. (Count)
system.cpu1.exec_context.thread_0.statExecutedInstType::InstPrefetch            0                       # Class of executed instruction. (Count)
system.cpu1.exec_context.thread_0.statExecutedInstType::total            0                       # Class of executed instruction. (Count)
system.cpu1.icache.blockedCycles::no_mshrs            0                       # number of cycles access was blocked (Cycle)
system.cpu1.icache.blockedCycles::no_targets            0                       # number of cycles access was blocked (Cycle)
system.cpu1.icache.blockedCauses::no_mshrs            0                       # number of times access was blocked (Count)
system.cpu1.icache.blockedCauses::no_targets            0                       # number of times access was blocked (Count)
system.cpu1.icache.avgBlocked::no_mshrs           nan                       # average number of cycles each access was blocked ((Cycle/Count))
system.cpu1.icache.avgBlocked::no_targets          nan                       # average number of cycles each access was blocked ((Cycle/Count))
system.cpu1.icache.replacements                     0                       # number of replacements (Count)
system.cpu1.icache.power_state.pwrStateResidencyTicks::UNDEFINED     33361888                       # Cumulative time (in ticks) in various power states (Tick)
system.cpu1.icache.tags.tagsInUse                   0                       # Average ticks per tags in use ((Tick/Count))
system.cpu1.icache.tags.totalRefs                   0                       # Total number of references to valid blocks. (Count)
system.cpu1.icache.tags.sampledRefs                 0                       # Sample count of references to valid blocks. (Count)
system.cpu1.icache.tags.avgRefs                   nan                       # Average number of references to valid blocks. ((Count/Count))
system.cpu1.icache.tags.warmupTick                  0                       # The tick when the warmup percentage was hit. (Tick)
system.cpu1.icache.tags.tagAccesses                 0                       # Number of tag accesses (Count)
system.cpu1.icache.tags.dataAccesses                0                       # Number of data accesses (Count)
system.cpu1.icache.tags.power_state.pwrStateResidencyTicks::UNDEFINED     33361888                       # Cumulative time (in ticks) in various power states (Tick)
system.cpu1.mmu.alignFaults                         0                       # Number of MMU faults due to alignment restrictions (Count)
system.cpu1.mmu.prefetchFaults                      0                       # Number of MMU faults due to prefetch (Count)
system.cpu1.mmu.domainFaults                        0                       # Number of MMU faults due to domain restrictions (Count)
system.cpu1.mmu.permsFaults                         0                       # Number of MMU faults due to permissions restrictions (Count)
system.cpu1.mmu.dtb.readHits                        0                       # Read hits (Count)
system.cpu1.mmu.dtb.readMisses                      0                       # Read misses (Count)
system.cpu1.mmu.dtb.writeHits                       0                       # Write hits (Count)
system.cpu1.mmu.dtb.writeMisses                     0                       # Write misses (Count)
system.cpu1.mmu.dtb.inserts                         0                       # Number of times an entry is inserted into the TLB (Count)
system.cpu1.mmu.dtb.flushTlb                        0                       # Number of times complete TLB was flushed (Count)
system.cpu1.mmu.dtb.flushTlbMva                     0                       # Number of times TLB was flushed by MVA (Count)
system.cpu1.mmu.dtb.flushTlbMvaAsid                 0                       # Number of times TLB was flushed by MVA & ASID (Count)
system.cpu1.mmu.dtb.flushTlbAsid                    0                       # Number of times TLB was flushed by ASID (Count)
system.cpu1.mmu.dtb.flushedEntries                  0                       # Number of entries that have been flushed from TLB (Count)
system.cpu1.mmu.dtb.readAccesses                    0                       # Read accesses (Count)
system.cpu1.mmu.dtb.writeAccesses                   0                       # Write accesses (Count)
system.cpu1.mmu.dtb.hits                            0                       # Total TLB (inst and data) hits (Count)
system.cpu1.mmu.dtb.misses                          0                       # Total TLB (inst and data) misses (Count)
system.cpu1.mmu.dtb.accesses                        0                       # Total TLB (inst and data) accesses (Count)
system.cpu1.mmu.dtb_walker.walks                    0                       # Table walker walks requested (Count)
system.cpu1.mmu.dtb_walker.requestOrigin_Requested::Data            0                       # Table walker requests started/completed, data/inst (Count)
system.cpu1.mmu.dtb_walker.requestOrigin_Requested::Inst            0                       # Table walker requests started/completed, data/inst (Count)
system.cpu1.mmu.dtb_walker.requestOrigin_Requested::total            0                       # Table walker requests started/completed, data/inst (Count)
system.cpu1.mmu.dtb_walker.requestOrigin_Completed::Data            0                       # Table walker requests started/completed, data/inst (Count)
system.cpu1.mmu.dtb_walker.requestOrigin_Completed::Inst            0                       # Table walker requests started/completed, data/inst (Count)
system.cpu1.mmu.dtb_walker.requestOrigin_Completed::total            0                       # Table walker requests started/completed, data/inst (Count)
system.cpu1.mmu.dtb_walker.requestOrigin::total            0                       # Table walker requests started/completed, data/inst (Count)
system.cpu1.mmu.dtb_walker.power_state.pwrStateResidencyTicks::UNDEFINED     33361888                       # Cumulative time (in ticks) in various power states (Tick)
system.cpu1.mmu.itb.instHits                        0                       # Inst hits (Count)
system.cpu1.mmu.itb.instMisses                      0                       # Inst misses (Count)
system.cpu1.mmu.itb.inserts                         0                       # Number of times an entry is inserted into the TLB (Count)
system.cpu1.mmu.itb.flushTlb                        0                       # Number of times complete TLB was flushed (Count)
system.cpu1.mmu.itb.flushTlbMva                     0                       # Number of times TLB was flushed by MVA (Count)
system.cpu1.mmu.itb.flushTlbMvaAsid                 0                       # Number of times TLB was flushed by MVA & ASID (Count)
system.cpu1.mmu.itb.flushTlbAsid                    0                       # Number of times TLB was flushed by ASID (Count)
system.cpu1.mmu.itb.flushedEntries                  0                       # Number of entries that have been flushed from TLB (Count)
system.cpu1.mmu.itb.instAccesses                    0                       # Inst accesses (Count)
system.cpu1.mmu.itb.hits                            0                       # Total TLB (inst and data) hits (Count)
system.cpu1.mmu.itb.misses                          0                       # Total TLB (inst and data) misses (Count)
system.cpu1.mmu.itb.accesses                        0                       # Total TLB (inst and data) accesses (Count)
system.cpu1.mmu.itb_walker.walks                    0                       # Table walker walks requested (Count)
system.cpu1.mmu.itb_walker.requestOrigin_Requested::Data            0                       # Table walker requests started/completed, data/inst (Count)
system.cpu1.mmu.itb_walker.requestOrigin_Requested::Inst            0                       # Table walker requests started/completed, data/inst (Count)
system.cpu1.mmu.itb_walker.requestOrigin_Requested::total            0                       # Table walker requests started/completed, data/inst (Count)
system.cpu1.mmu.itb_walker.requestOrigin_Completed::Data            0                       # Table walker requests started/completed, data/inst (Count)
system.cpu1.mmu.itb_walker.requestOrigin_Completed::Inst            0                       # Table walker requests started/completed, data/inst (Count)
system.cpu1.mmu.itb_walker.requestOrigin_Completed::total            0                       # Table walker requests started/completed, data/inst (Count)
system.cpu1.mmu.itb_walker.requestOrigin::total            0                       # Table walker requests started/completed, data/inst (Count)
system.cpu1.mmu.itb_walker.power_state.pwrStateResidencyTicks::UNDEFINED     33361888                       # Cumulative time (in ticks) in various power states (Tick)
system.cpu1.mmu.l2_shared.instHits                  0                       # Inst hits (Count)
system.cpu1.mmu.l2_shared.instMisses                0                       # Inst misses (Count)
system.cpu1.mmu.l2_shared.inserts                   0                       # Number of times an entry is inserted into the TLB (Count)
system.cpu1.mmu.l2_shared.flushTlb                  0                       # Number of times complete TLB was flushed (Count)
system.cpu1.mmu.l2_shared.flushTlbMva               0                       # Number of times TLB was flushed by MVA (Count)
system.cpu1.mmu.l2_shared.flushTlbMvaAsid            0                       # Number of times TLB was flushed by MVA & ASID (Count)
system.cpu1.mmu.l2_shared.flushTlbAsid              0                       # Number of times TLB was flushed by ASID (Count)
system.cpu1.mmu.l2_shared.flushedEntries            0                       # Number of entries that have been flushed from TLB (Count)
system.cpu1.mmu.l2_shared.instAccesses              0                       # Inst accesses (Count)
system.cpu1.mmu.l2_shared.hits                      0                       # Total TLB (inst and data) hits (Count)
system.cpu1.mmu.l2_shared.misses                    0                       # Total TLB (inst and data) misses (Count)
system.cpu1.mmu.l2_shared.accesses                  0                       # Total TLB (inst and data) accesses (Count)
system.cpu1.mmu.stage2_dtb.readHits                 0                       # Read hits (Count)
system.cpu1.mmu.stage2_dtb.readMisses               0                       # Read misses (Count)
system.cpu1.mmu.stage2_dtb.writeHits                0                       # Write hits (Count)
system.cpu1.mmu.stage2_dtb.writeMisses              0                       # Write misses (Count)
[...]
system.mem_ctrls.dram.perBankRdBursts::20            6                       # Per bank write bursts (Count)
system.mem_ctrls.dram.perBankRdBursts::21            2                       # Per bank write bursts (Count)
system.mem_ctrls.dram.perBankRdBursts::22           17                       # Per bank write bursts (Count)
system.mem_ctrls.dram.perBankRdBursts::23            4                       # Per bank write bursts (Count)
system.mem_ctrls.dram.perBankRdBursts::24            0                       # Per bank write bursts (Count)
system.mem_ctrls.dram.perBankRdBursts::25            2                       # Per bank write bursts (Count)
system.mem_ctrls.dram.perBankRdBursts::26            0                       # Per bank write bursts (Count)
system.mem_ctrls.dram.perBankRdBursts::27            2                       # Per bank write bursts (Count)
system.mem_ctrls.dram.perBankRdBursts::28            2                       # Per bank write bursts (Count)
system.mem_ctrls.dram.perBankRdBursts::29            7                       # Per bank write bursts (Count)
system.mem_ctrls.dram.perBankRdBursts::30            4                       # Per bank write bursts (Count)
system.mem_ctrls.dram.perBankRdBursts::31            0                       # Per bank write bursts (Count)
system.mem_ctrls.dram.perBankWrBursts::0            0                       # Per bank write bursts (Count)
system.mem_ctrls.dram.perBankWrBursts::1            0                       # Per bank write bursts (Count)
system.mem_ctrls.dram.perBankWrBursts::2            0                       # Per bank write bursts (Count)
system.mem_ctrls.dram.perBankWrBursts::3            0                       # Per bank write bursts (Count)
system.mem_ctrls.dram.perBankWrBursts::4            0                       # Per bank write bursts (Count)
system.mem_ctrls.dram.perBankWrBursts::5            0                       # Per bank write bursts (Count)
system.mem_ctrls.dram.perBankWrBursts::6            0                       # Per bank write bursts (Count)
system.mem_ctrls.dram.perBankWrBursts::7            0                       # Per bank write bursts (Count)
system.mem_ctrls.dram.perBankWrBursts::8            0                       # Per bank write bursts (Count)
system.mem_ctrls.dram.perBankWrBursts::9            0                       # Per bank write bursts (Count)
system.mem_ctrls.dram.perBankWrBursts::10            0                       # Per bank write bursts (Count)
system.mem_ctrls.dram.perBankWrBursts::11            0                       # Per bank write bursts (Count)
system.mem_ctrls.dram.perBankWrBursts::12            0                       # Per bank write bursts (Count)
system.mem_ctrls.dram.perBankWrBursts::13            0                       # Per bank write bursts (Count)
system.mem_ctrls.dram.perBankWrBursts::14            0                       # Per bank write bursts (Count)
system.mem_ctrls.dram.perBankWrBursts::15            0                       # Per bank write bursts (Count)
system.mem_ctrls.dram.perBankWrBursts::16            0                       # Per bank write bursts (Count)
system.mem_ctrls.dram.perBankWrBursts::17            0                       # Per bank write bursts (Count)
system.mem_ctrls.dram.perBankWrBursts::18            0                       # Per bank write bursts (Count)
system.mem_ctrls.dram.perBankWrBursts::19            0                       # Per bank write bursts (Count)
system.mem_ctrls.dram.perBankWrBursts::20            0                       # Per bank write bursts (Count)
system.mem_ctrls.dram.perBankWrBursts::21            0                       # Per bank write bursts (Count)
system.mem_ctrls.dram.perBankWrBursts::22            0                       # Per bank write bursts (Count)
system.mem_ctrls.dram.perBankWrBursts::23            0                       # Per bank write bursts (Count)
system.mem_ctrls.dram.perBankWrBursts::24            0                       # Per bank write bursts (Count)
system.mem_ctrls.dram.perBankWrBursts::25            0                       # Per bank write bursts (Count)
system.mem_ctrls.dram.perBankWrBursts::26            0                       # Per bank write bursts (Count)
system.mem_ctrls.dram.perBankWrBursts::27            0                       # Per bank write bursts (Count)
system.mem_ctrls.dram.perBankWrBursts::28            0                       # Per bank write bursts (Count)
system.mem_ctrls.dram.perBankWrBursts::29            0                       # Per bank write bursts (Count)
system.mem_ctrls.dram.perBankWrBursts::30            0                       # Per bank write bursts (Count)
system.mem_ctrls.dram.perBankWrBursts::31            0                       # Per bank write bursts (Count)
system.mem_ctrls.dram.totQLat                 2660874                       # Total ticks spent queuing (Tick)
system.mem_ctrls.dram.totBusLat               1222844                       # Total ticks spent in databus transfers (Tick)
system.mem_ctrls.dram.totMemAccLat            9080438                       # Total ticks spent from burst creation until serviced by the DRAM (Tick)
system.mem_ctrls.dram.avgQLat                 7250.34                       # Average queueing delay per DRAM burst ((Tick/Count))
system.mem_ctrls.dram.avgBusLat               3332.00                       # Average bus latency per DRAM burst ((Tick/Count))
system.mem_ctrls.dram.avgMemAccLat           24742.34                       # Average memory access latency per DRAM burst ((Tick/Count))
system.mem_ctrls.dram.readRowHits                 292                       # Number of row buffer hits during reads (Count)
system.mem_ctrls.dram.writeRowHits                  0                       # Number of row buffer hits during writes (Count)
system.mem_ctrls.dram.readRowHitRate            79.56                       # Row buffer hit rate for reads (Ratio)
system.mem_ctrls.dram.writeRowHitRate             nan                       # Row buffer hit rate for writes (Ratio)
system.mem_ctrls.dram.bytesPerActivate::samples           70                       # Bytes accessed per row activation (Byte)
system.mem_ctrls.dram.bytesPerActivate::mean   323.657143                       # Bytes accessed per row activation (Byte)
system.mem_ctrls.dram.bytesPerActivate::gmean   205.839233                       # Bytes accessed per row activation (Byte)
system.mem_ctrls.dram.bytesPerActivate::stdev   312.374909                       # Bytes accessed per row activation (Byte)
system.mem_ctrls.dram.bytesPerActivate::0-127           21     30.00%     30.00% # Bytes accessed per row activation (Byte)
system.mem_ctrls.dram.bytesPerActivate::128-255           17     24.29%     54.29% # Bytes accessed per row activation (Byte)
system.mem_ctrls.dram.bytesPerActivate::256-383           12     17.14%     71.43% # Bytes accessed per row activation (Byte)
system.mem_ctrls.dram.bytesPerActivate::384-511            4      5.71%     77.14% # Bytes accessed per row activation (Byte)
system.mem_ctrls.dram.bytesPerActivate::512-639            4      5.71%     82.86% # Bytes accessed per row activation (Byte)
system.mem_ctrls.dram.bytesPerActivate::640-767            2      2.86%     85.71% # Bytes accessed per row activation (Byte)
system.mem_ctrls.dram.bytesPerActivate::768-895            2      2.86%     88.57% # Bytes accessed per row activation (Byte)
system.mem_ctrls.dram.bytesPerActivate::896-1023            1      1.43%     90.00% # Bytes accessed per row activation (Byte)
system.mem_ctrls.dram.bytesPerActivate::1024-1151            7     10.00%    100.00% # Bytes accessed per row activation (Byte)
system.mem_ctrls.dram.bytesPerActivate::total           70                       # Bytes accessed per row activation (Byte)
system.mem_ctrls.dram.bytesRead                 23488                       # Total bytes read (Byte)
system.mem_ctrls.dram.bytesWritten                  0                       # Total bytes written (Byte)
system.mem_ctrls.dram.avgRdBW              704.036894                       # Average DRAM read bandwidth in MiBytes/s ((Byte/Second))
system.mem_ctrls.dram.avgWrBW                       0                       # Average DRAM write bandwidth in MiBytes/s ((Byte/Second))
system.mem_ctrls.dram.peakBW                 19207.00                       # Theoretical peak bandwidth in MiByte/s ((Byte/Second))
system.mem_ctrls.dram.busUtil                    3.67                       # Data bus utilization in percentage (Ratio)
system.mem_ctrls.dram.busUtilRead                3.67                       # Data bus utilization in percentage for reads (Ratio)
system.mem_ctrls.dram.busUtilWrite               0.00                       # Data bus utilization in percentage for writes (Ratio)
system.mem_ctrls.dram.pageHitRate               79.56                       # Row buffer hit rate, read and write combined (Ratio)
system.mem_ctrls.dram.power_state.pwrStateResidencyTicks::UNDEFINED     33361888                       # Cumulative time (in ticks) in various power states (Tick)
system.mem_ctrls.dram.rank0.actEnergy    87325.056000                       # Energy for activate commands per rank (pJ) (Joule)
system.mem_ctrls.dram.rank0.preEnergy    143150.716800                       # Energy for precharge commands per rank (pJ) (Joule)
system.mem_ctrls.dram.rank0.readEnergy   858528.451200                       # Energy for read commands per rank (pJ) (Joule)
system.mem_ctrls.dram.rank0.writeEnergy             0                       # Energy for write commands per rank (pJ) (Joule)
system.mem_ctrls.dram.rank0.refreshEnergy 2703422.198400                       # Energy for refresh commands per rank (pJ) (Joule)
system.mem_ctrls.dram.rank0.actBackEnergy 15359065.915200                       # Energy for active background per rank (pJ) (Joule)
system.mem_ctrls.dram.rank0.preBackEnergy 286301.433600                       # Energy for precharge background per rank (pJ) (Joule)
system.mem_ctrls.dram.rank0.actPowerDownEnergy            0                       # Energy for active power-down per rank (pJ) (Joule)
system.mem_ctrls.dram.rank0.prePowerDownEnergy            0                       # Energy for precharge power-down per rank (pJ) (Joule)
system.mem_ctrls.dram.rank0.selfRefreshEnergy            0                       # Energy for self refresh per rank (pJ) (Joule)
system.mem_ctrls.dram.rank0.totalEnergy  19437793.771200                       # Total energy per rank (pJ) (Joule)
system.mem_ctrls.dram.rank0.averagePower   582.634705                       # Core power per rank (mW) (Watt)
system.mem_ctrls.dram.rank0.totalIdleTime            0                       # Total Idle time Per DRAM Rank (Tick)
system.mem_ctrls.dram.rank0.pwrStateTime::IDLE       765956                       # Time in different power states (Tick)
system.mem_ctrls.dram.rank0.pwrStateTime::REF      1400000                       # Time in different power states (Tick)
system.mem_ctrls.dram.rank0.pwrStateTime::SREF            0                       # Time in different power states (Tick)
system.mem_ctrls.dram.rank0.pwrStateTime::PRE_PDN            0                       # Time in different power states (Tick)
system.mem_ctrls.dram.rank0.pwrStateTime::ACT     31195932                       # Time in different power states (Tick)
system.mem_ctrls.dram.rank0.pwrStateTime::ACT_PDN            0                       # Time in different power states (Tick)
system.mem_ctrls.dram.rank1.actEnergy    29628.144000                       # Energy for activate commands per rank (pJ) (Joule)
system.mem_ctrls.dram.rank1.preEnergy    49552.171200                       # Energy for precharge commands per rank (pJ) (Joule)
system.mem_ctrls.dram.rank1.readEnergy   148116.729600                       # Energy for read commands per rank (pJ) (Joule)
system.mem_ctrls.dram.rank1.writeEnergy             0                       # Energy for write commands per rank (pJ) (Joule)
system.mem_ctrls.dram.rank1.refreshEnergy 2703422.198400                       # Energy for refresh commands per rank (pJ) (Joule)
system.mem_ctrls.dram.rank1.actBackEnergy 10721177.812800                       # Energy for active background per rank (pJ) (Joule)
system.mem_ctrls.dram.rank1.preBackEnergy 3488092.204800                       # Energy for precharge background per rank (pJ) (Joule)
system.mem_ctrls.dram.rank1.actPowerDownEnergy            0                       # Energy for active power-down per rank (pJ) (Joule)
system.mem_ctrls.dram.rank1.prePowerDownEnergy            0                       # Energy for precharge power-down per rank (pJ) (Joule)
system.mem_ctrls.dram.rank1.selfRefreshEnergy            0                       # Energy for self refresh per rank (pJ) (Joule)
system.mem_ctrls.dram.rank1.totalEnergy  17139989.260800                       # Total energy per rank (pJ) (Joule)
system.mem_ctrls.dram.rank1.averagePower   513.759571                       # Core power per rank (mW) (Watt)
system.mem_ctrls.dram.rank1.totalIdleTime            0                       # Total Idle time Per DRAM Rank (Tick)
system.mem_ctrls.dram.rank1.pwrStateTime::IDLE     10575346                       # Time in different power states (Tick)
system.mem_ctrls.dram.rank1.pwrStateTime::REF      1400000                       # Time in different power states (Tick)
system.mem_ctrls.dram.rank1.pwrStateTime::SREF            0                       # Time in different power states (Tick)
system.mem_ctrls.dram.rank1.pwrStateTime::PRE_PDN            0                       # Time in different power states (Tick)
system.mem_ctrls.dram.rank1.pwrStateTime::ACT     21386542                       # Time in different power states (Tick)
system.mem_ctrls.dram.rank1.pwrStateTime::ACT_PDN            0                       # Time in different power states (Tick)
system.mem_ctrls.power_state.pwrStateResidencyTicks::UNDEFINED     33361888                       # Cumulative time (in ticks) in various power states (Tick)
system.membus.transDist::ReadResp                 291                       # Transaction distribution (Count)
system.membus.transDist::WritebackClean             1                       # Transaction distribution (Count)
system.membus.transDist::ReadExReq                 76                       # Transaction distribution (Count)
system.membus.transDist::ReadExResp                76                       # Transaction distribution (Count)
system.membus.transDist::ReadCleanReq             208                       # Transaction distribution (Count)
system.membus.transDist::ReadSharedReq             83                       # Transaction distribution (Count)
system.membus.pktCount_system.cpu0.icache.mem_side_port::system.mem_ctrls.port          417                       # Packet count per connected requestor and responder (Count)
system.membus.pktCount_system.cpu0.dcache.mem_side_port::system.mem_ctrls.port          318                       # Packet count per connected requestor and responder (Count)
system.membus.pktCount::total                     735                       # Packet count per connected requestor and responder (Count)
system.membus.pktSize_system.cpu0.icache.mem_side_port::system.mem_ctrls.port        13376                       # Cumulative packet size per connected requestor and responder (Byte)
system.membus.pktSize_system.cpu0.dcache.mem_side_port::system.mem_ctrls.port        10176                       # Cumulative packet size per connected requestor and responder (Byte)
system.membus.pktSize::total                    23552                       # Cumulative packet size per connected requestor and responder (Byte)
system.membus.snoops                                0                       # Total snoops (Count)
system.membus.snoopTraffic                          0                       # Total snoop traffic (Byte)
system.membus.snoopFanout::samples                367                       # Request fanout histogram (Count)
system.membus.snoopFanout::mean              0.029973                       # Request fanout histogram (Count)
system.membus.snoopFanout::stdev             0.170745                       # Request fanout histogram (Count)
system.membus.snoopFanout::underflows               0      0.00%      0.00% # Request fanout histogram (Count)
system.membus.snoopFanout::0                      356     97.00%     97.00% # Request fanout histogram (Count)
system.membus.snoopFanout::1                       11      3.00%    100.00% # Request fanout histogram (Count)
system.membus.snoopFanout::2                        0      0.00%    100.00% # Request fanout histogram (Count)
system.membus.snoopFanout::3                        0      0.00%    100.00% # Request fanout histogram (Count)
system.membus.snoopFanout::4                        0      0.00%    100.00% # Request fanout histogram (Count)
system.membus.snoopFanout::5                        0      0.00%    100.00% # Request fanout histogram (Count)
system.membus.snoopFanout::6                        0      0.00%    100.00% # Request fanout histogram (Count)
system.membus.snoopFanout::7                        0      0.00%    100.00% # Request fanout histogram (Count)
system.membus.snoopFanout::8                        0      0.00%    100.00% # Request fanout histogram (Count)
system.membus.snoopFanout::overflows                0      0.00%    100.00% # Request fanout histogram (Count)
system.membus.snoopFanout::min_value                0                       # Request fanout histogram (Count)
system.membus.snoopFanout::max_value                1                       # Request fanout histogram (Count)
system.membus.snoopFanout::total                  367                       # Request fanout histogram (Count)
system.membus.power_state.pwrStateResidencyTicks::UNDEFINED     33361888                       # Cumulative time (in ticks) in various power states (Tick)
system.membus.reqLayer0.occupancy              562070                       # Layer occupancy (ticks) (Tick)
system.membus.reqLayer0.utilization               0.0                       # Layer utilization (Ratio)
system.membus.respLayer1.occupancy            1136080                       # Layer occupancy (ticks) (Tick)
system.membus.respLayer1.utilization              0.0                       # Layer utilization (Ratio)
system.membus.respLayer2.occupancy             866346                       # Layer occupancy (ticks) (Tick)
system.membus.respLayer2.utilization              0.0                       # Layer utilization (Ratio)
system.membus.snoop_filter.totRequests            368                       # Total number of requests made to the snoop filter. (Count)
system.membus.snoop_filter.hitSingleRequests           12                       # Number of requests hitting in the snoop filter with a single holder of the requested data. (Count)
system.membus.snoop_filter.hitMultiRequests            0                       # Number of requests hitting in the snoop filter with multiple (>1) holders of the requested data. (Count)
system.membus.snoop_filter.totSnoops                0                       # Total number of snoops made to the snoop filter. (Count)
system.membus.snoop_filter.hitSingleSnoops            0                       # Number of snoops hitting in the snoop filter with a single holder of the requested data. (Count)
system.membus.snoop_filter.hitMultiSnoops            0                       # Number of snoops hitting in the snoop filter with multiple (>1) holders of the requested data. (Count)
system.voltage_domain.voltage                       1                       # Voltage in Volts (Volt)
system.workload.inst.arm                            0                       # number of arm instructions executed (Count)
system.workload.inst.quiesce                        0                       # number of quiesce instructions executed (Count)

---------- End Simulation Statistics   ----------
